Circuit: * C:\Users\Lucas\Documents\Actualmente Usando\Teoría de Circuitos\TP6\EJ3\Simulación\AcondicionamientoLineal.asc

WARNING: Specified period is not longer than the sum of Trise, Tfall, and Ton for v3.  Increasing period to 0.010002
Direct Newton iteration for .op point succeeded.

Date: Wed Nov 06 13:03:16 2019
Total elapsed time: 0.409 seconds.

tnom = 27
temp = 27
method = modified trap
totiter = 10878
traniter = 10860
tranpoints = 5413
accept = 5314
rejected = 99
matrix size = 83
fillins = 67
solver = Normal
Thread vector: 4.8/4.1[2] 3.5/2.6[2] 1.3/1.8[1] 0.6/2.2[1]  2592/500
Matrix Compiler1: 5.79 KB object code size  2.5/1.8/[0.6]
Matrix Compiler2: 7.54 KB object code size  1.6/25.7/[0.9]

