Circuit: * C:\Users\Lucas\Documents\Actualmente Usando\Teoría de Circuitos\TP6\EJ3\Simulación\Completo.asc

Direct Newton iteration for .op point succeeded.

Date: Sat Nov 09 18:28:11 2019
Total elapsed time: 5.906 seconds.

tnom = 27
temp = 27
method = modified trap
totiter = 146051
traniter = 146019
tranpoints = 53876
accept = 52377
rejected = 1499
matrix size = 234
fillins = 225
solver = Normal
Thread vector: 18.0/11.5[3] 7.3/6.1[3] 2.5/4.2[1] 1.3/4.3[1]  2592/500
Matrix Compiler1: 19.53 KB object code size  8.4/4.2/[4.3]
Matrix Compiler2: 22.43 KB object code size  4.1/7.9/[2.2]

