Circuit: * C:\Users\Lucas\Documents\Actualmente Usando\Teoría de Circuitos\TP6\EJ3\Simulación\Completo.asc

Direct Newton iteration for .op point succeeded.

Date: Fri Nov 08 13:24:22 2019
Total elapsed time: 4.787 seconds.

tnom = 27
temp = 27
method = modified trap
totiter = 145282
traniter = 145250
tranpoints = 54097
accept = 52463
rejected = 1634
matrix size = 234
fillins = 221
solver = Normal
Thread vector: 13.2/8.6[4] 9.3/3.5[4] 3.4/3.0[2] 1.1/2.7[1]  2592/500
Matrix Compiler1: 19.13 KB object code size  10.4/5.0/[3.0]
Matrix Compiler2: 22.39 KB object code size  5.0/5.9/[1.5]

