Circuit: * C:\Users\Lucas\Documents\Actualmente Usando\Teoría de Circuitos\TP6\EJ3\Simulación\Completo.asc

Direct Newton iteration for .op point succeeded.

Date: Thu Nov 07 04:09:15 2019
Total elapsed time: 8.160 seconds.

tnom = 27
temp = 27
method = modified trap
totiter = 141482
traniter = 141445
tranpoints = 53651
accept = 52239
rejected = 1412
matrix size = 240
fillins = 222
solver = Normal
Thread vector: 22.4/14.1[4] 8.7/6.4[3] 2.9/4.4[1] 1.1/3.8[1]  2592/500
Matrix Compiler1: 19.55 KB object code size  8.5/4.1/[2.0]
Matrix Compiler2: 22.94 KB object code size  4.2/5.6/[1.4]

