Circuit: * C:\Users\Lucas\Documents\Actualmente Usando\Teoría de Circuitos\TP6\EJ3\Simulación\CrazyStuff_v2.asc

WARNING: Specified period is not longer than the sum of Trise, Tfall, and Ton for v3.  Increasing period to 0.0010001
Direct Newton iteration for .op point succeeded.

Date: Mon Nov 11 00:28:31 2019
Total elapsed time: 11.455 seconds.

tnom = 27
temp = 27
method = modified trap
totiter = 1157959
traniter = 1157941
tranpoints = 578868
accept = 556436
rejected = 22432
matrix size = 97
fillins = 82
solver = Normal
Thread vector: 4.8/3.1[2] 1.5/1.8[1] 0.8/1.1[1] 0.5/1.2[1]  2592/500
Matrix Compiler1: 8.04 KB object code size  1.7/0.8/[0.5]
Matrix Compiler2: 9.08 KB object code size  0.9/1.1/[0.5]

