Circuit: * C:\Users\Lucas\Documents\Actualmente Usando\Teoría de Circuitos\TP6\EJ3\Simulación\CrazyStuff.asc

WARNING: Specified period is not longer than the sum of Trise, Tfall, and Ton for v3.  Increasing period to 0.0010001
Direct Newton iteration for .op point succeeded.

Date: Thu Nov 07 16:12:15 2019
Total elapsed time: 12.638 seconds.

tnom = 27
temp = 27
method = modified trap
totiter = 1221641
traniter = 1221620
tranpoints = 545685
accept = 535521
rejected = 10164
matrix size = 112
fillins = 101
solver = Normal
Thread vector: 5.8/3.9[2] 2.0/3.0[1] 0.8/1.6[1] 0.5/1.3[1]  2592/500
Matrix Compiler1: 10.15 KB object code size  2.9/1.1/[0.7]
Matrix Compiler2: 10.74 KB object code size  1.0/1.3/[0.6]

