Circuit: * C:\Users\Lucas\Documents\Actualmente Usando\Teoría de Circuitos\TP6\EJ3\Simulación\CrazyStuff_v2.asc

WARNING: Specified period is not longer than the sum of Trise, Tfall, and Ton for v3.  Increasing period to 0.0010001
Direct Newton iteration for .op point succeeded.

Date: Thu Nov 07 16:18:15 2019
Total elapsed time: 11.566 seconds.

tnom = 27
temp = 27
method = modified trap
totiter = 1167314
traniter = 1167296
tranpoints = 541435
accept = 532636
rejected = 8799
matrix size = 99
fillins = 92
solver = Normal
Thread vector: 9.3/7.1[2] 7.6/6.8[2] 2.3/14.2[1] 1.0/3.6[1]  2592/500
Matrix Compiler1: 8.50 KB object code size  8.3/4.4/[1.7]
Matrix Compiler2: 9.40 KB object code size  4.0/5.5/[1.5]

