Circuit: * C:\Users\Lucas\Documents\Actualmente Usando\Teoría de Circuitos\TP6\EJ3\Simulación\CrazyStuff_v3.asc

WARNING: Specified period is not longer than the sum of Trise, Tfall, and Ton for v3.  Increasing period to 0.0010001
Direct Newton iteration for .op point succeeded.

Date: Thu Nov 07 20:38:28 2019
Total elapsed time: 6.802 seconds.

tnom = 27
temp = 27
method = modified trap
totiter = 1113863
traniter = 1113845
tranpoints = 556589
accept = 542275
rejected = 14314
matrix size = 64
fillins = 38
solver = Normal
Matrix Compiler1: 4.76 KB object code size  1.0/0.5/[0.3]
Matrix Compiler2: 5.75 KB object code size  0.5/0.7/[0.3]

