Circuit: * C:\Users\Lucas\Documents\Actualmente Usando\Teoría de Circuitos\TP6\EJ3\Simulación\Draft2.asc

WARNING: Specified period is not longer than the sum of Trise, Tfall, and Ton for v3.  Increasing period to 0.010001
Direct Newton iteration failed to find .op point.  (Use ".option noopiter" to skip.)
Starting Gmin stepping
Gmin = 10
vernier = 0.5
vernier = 0.25
Gmin = 4.26858
vernier = 0.125
vernier = 0.0625
vernier = 0.03125
Gmin = 4.13347
vernier = 0.0416667
vernier = 0.0208333
Gmin = 3.91424
vernier = 0.0104167
vernier = 0.0138889
vernier = 0.00694444
Gmin = 3.8503
vernier = 0.00925925
vernier = 0.00462963
Gmin = 3.79944
vernier = 0.00617283
vernier = 0.00308642
Gmin = 3.76589
vernier = 0.00411522
vernier = 0.00205761
Gmin = 3.74273
vernier = 0.00274348
vernier = 0.00137174
Gmin = 3.72481
vernier = 0.00182899
Gmin = 3.70951
vernier = 0.00243865
vernier = 0.00121932
vernier = 0.00162576
vernier = 0.000812882
Gmin = 3.70236
vernier = 0.00108384
Gmin = 3.69359
vernier = 0.00144512
vernier = 0.000722562
vernier = 0.000963415
Gmin = 3.68748
vernier = 0.00128455
vernier = 0.000642277
Gmin = 3.68157
vernier = 0.000856369
vernier = 0.000428184
vernier = 0.000570912
Gmin = 3.67769
vernier = 0.000761216
vernier = 0.000570912
Gmin = 3.6735
vernier = 0.000761216
vernier = 0.000570912
vernier = 0.000428184
Gmin = 3.67035
vernier = 0.000570912
vernier = 0.000428184
Gmin = 3.66721
vernier = 0.000570912
vernier = 0.000428184
vernier = 0.000570912
Gmin = 3.66394
vernier = 0.000428184
Gmin = 0
Gmin stepping failed

Starting source stepping with srcstepmethod=0
Source Step = 3.0303%
Source Step = 33.3333%
Source Step = 63.6364%
Source Step = 93.9394%
Source stepping succeeded in finding the operating point.


Date: Wed Nov 06 13:40:42 2019
Total elapsed time: 0.716 seconds.

tnom = 27
temp = 27
method = modified trap
totiter = 25975
traniter = 12781
tranpoints = 5527
accept = 5384
rejected = 143
matrix size = 44
fillins = 30
solver = Normal
Matrix Compiler1: 2.92 KB object code size  0.6/0.3/[0.2]
Matrix Compiler2: 3.80 KB object code size  0.4/0.6/[0.4]

