Circuit: * C:\Users\Lucas\Documents\Actualmente Usando\Teoría de Circuitos\TP6\EJ3\Simulación\TriangleToSinConverter.asc

WARNING: Specified period is not longer than the sum of Trise, Tfall, and Ton for v3.  Increasing period to 0.0010001
Direct Newton iteration for .op point succeeded.

Date: Thu Nov 07 15:04:15 2019
Total elapsed time: 0.467 seconds.

tnom = 27
temp = 27
method = modified trap
totiter = 22075
traniter = 22031
tranpoints = 10828
accept = 10591
rejected = 237
matrix size = 71
fillins = 36
solver = Normal
Matrix Compiler1: 5.30 KB object code size  1.6/0.9/[0.5]
Matrix Compiler2: 6.38 KB object code size  0.8/1.4/[0.6]

