Circuit: * C:\Users\Lucas\Documents\Actualmente Usando\Teoría de Circuitos\TP6\EJ3\Simulación\TriangleToSinConverter.asc

WARNING: Specified period is not longer than the sum of Trise, Tfall, and Ton for v3.  Increasing period to 0.0010001
Direct Newton iteration for .op point succeeded.

Date: Thu Nov 07 02:08:57 2019
Total elapsed time: 0.570 seconds.

tnom = 27
temp = 27
method = modified trap
totiter = 21754
traniter = 21718
tranpoints = 10792
accept = 10569
rejected = 223
matrix size = 72
fillins = 38
solver = Normal
Matrix Compiler1: 5.33 KB object code size  1.1/0.6/[0.4]
Matrix Compiler2: off  [0.6]/1.0/0.8

