Circuit: * C:\Users\Lucas\Documents\Actualmente Usando\Teoría de Circuitos\TP6\EJ3\Simulación\VCO.asc

Direct Newton iteration failed to find .op point.  (Use ".option noopiter" to skip.)
Starting Gmin stepping
Increasing initial diagonal Gmin to 100
Gmin = 100
Gmin = 10.7374
vernier = 0.5
vernier = 0.25
vernier = 0.125
vernier = 0.0625
Gmin = 11.5662
vernier = 0.03125
vernier = 0.015625
vernier = 0.0078125
vernier = 0.00390625
vernier = 0.00195313
Gmin = 11.7012
vernier = 0.000976563
vernier = 0.000488281
Gmin = 0
Gmin stepping failed

Starting source stepping with srcstepmethod=0
Source Step = 3.0303%
Source Step = 33.3333%
Source Step = 63.6364%
Source Step = 66.8561%
Source Step = 68.75%
Source Step = 70.6439%
Source Step = 72.5379%
Source Step = 74.4318%
vernier = 0.09375
Source Step = 76.7045%
Source Step = 79.5455%
Source Step = 82.3864%
Source Step = 85.2273%
Source Step = 88.0682%
vernier = 0.140625
Source Step = 91.3352%
Source Step = 95.5966%
Source Step = 99.858%
Source stepping succeeded in finding the operating point.


Date: Wed Nov 06 03:03:07 2019
Total elapsed time: 1.686 seconds.

tnom = 27
temp = 27
method = modified trap
totiter = 22776
traniter = 19993
tranpoints = 4730
accept = 3863
rejected = 867
matrix size = 175
fillins = 584
solver = Normal
Thread vector: 10.9/8.1[3] 6.1/3.8[3] 1.4/3.7[1] 1.0/5.0[1]  2592/500
Matrix Compiler1: 46.07 KB object code size  14.0/8.6/[3.7]
Matrix Compiler2: 24.10 KB object code size  4.4/7.8/[1.9]

