Circuit: ****************************************************************************

Fatal Error: Connections: Missing node(s).
