Circuit: * C:\Users\facun\OneDrive\Desktop\ITBA\5C TC\TP6\EJ1\Simulación\wien_oscilator.asc

Direct Newton iteration for .op point succeeded.

Date: Fri Nov 15 02:40:36 2019
Total elapsed time: 3.891 seconds.

tnom = 27
temp = 27
method = modified trap
totiter = 480536
traniter = 480517
tranpoints = 152469
accept = 106225
rejected = 46244
matrix size = 51
fillins = 44
solver = Normal
Matrix Compiler1: 4.06 KB object code size  0.6/0.3/[0.1]
Matrix Compiler2: 4.66 KB object code size  0.3/0.4/[0.2]

